Results/Brussels debug 23_05/no conductors/Brussels_3sub/network_debug.txt
Pandapower Network Debug Info
==================================================

BUS:
          name  vn_kv type  zone  in_service   geo
0       Bus 27   15.0    b  None        True  None
1        Bus 7   15.0    b  None        True  None
2        Bus 5    0.4    b  None        True  None
3       Bus 13    0.4    b  None        True  None
4       Bus 10    0.4    b  None        True  None
5       Bus 35   15.0    b  None        True  None
6       Bus 15    0.4    b  None        True  None
7        Bus 1    0.4    b  None        True  None
8       Bus 36    0.4    b  None        True  None
9        Bus 3   15.0    b  None        True  None
10      Bus 30    0.4    b  None        True  None
11      Bus 11   15.0    b  None        True  None
12      Bus 31   15.0    b  None        True  None
13      Bus 12    0.4    b  None        True  None
14       Bus 9    0.4    b  None        True  None
15      Bus 28    0.4    b  None        True  None
16       Bus 8    0.4    b  None        True  None
17      Bus 26   15.0    b  None        True  None
18      Bus 16    0.4    b  None        True  None
19      Bus 38    0.4    b  None        True  None
20      Bus 29    0.4    b  None        True  None
21       Bus 6   15.0    b  None        True  None
22       Bus 2    0.4    b  None        True  None
23       Bus 4   15.0    b  None        True  None
24      Bus 40   15.0    b  None        True  None
25      Bus 32   15.0    b  None        True  None
26      Bus 34    0.4    b  None        True  None
27      Bus 14    0.4    b  None        True  None
28      Bus 33   15.0    b  None        True  None
29      Bus 39   15.0    b  None        True  None
30      Bus 37   15.0    b  None        True  None
31      Bus 19    0.4    b  None        True  None
32      Bus 20    0.4    b  None        True  None
33      Bus 24   15.0    b  None        True  None
34      Bus 21   15.0    b  None        True  None
35      Bus 18    0.4    b  None        True  None
36      Bus 23    0.4    b  None        True  None
37      Bus 47   15.0    b  None        True  None
38      Bus 45    0.4    b  None        True  None
39      Bus 41    0.4    b  None        True  None
40      Bus 22   15.0    b  None        True  None
41      Bus 17   15.0    b  None        True  None
42      Bus 42   15.0    b  None        True  None
43      Bus 49    0.4    b  None        True  None
44      Bus 50    0.4    b  None        True  None
45      Bus 46   15.0    b  None        True  None
46      Bus 48    0.4    b  None        True  None
47      Bus 25    0.4    b  None        True  None
48      Bus 43   15.0    b  None        True  None
49      Bus 44    0.4    b  None        True  None
50   Sub MV 51   15.0    b  None        True  None
51   Sub LV 51    0.4    b  None        True  None
52   Sub MV 53   15.0    b  None        True  None
53   Sub LV 53    0.4    b  None        True  None
54   Sub MV 54   15.0    b  None        True  None
55   Sub LV 54    0.4    b  None        True  None
56   Sub MV 55   15.0    b  None        True  None
57   Sub LV 55    0.4    b  None        True  None
58   Sub MV 58   15.0    b  None        True  None
59   Sub LV 58    0.4    b  None        True  None
60   Sub MV 59   15.0    b  None        True  None
61   Sub LV 59    0.4    b  None        True  None
62   Sub MV 60   15.0    b  None        True  None
63   Sub LV 60    0.4    b  None        True  None
64   Sub MV 61   15.0    b  None        True  None
65   Sub LV 61    0.4    b  None        True  None
66   Sub MV 62   15.0    b  None        True  None
67   Sub LV 62    0.4    b  None        True  None
68  Slack HV 0   70.0    b  None        True  None
69  Slack MV 0   15.0    b  None        True  None
--------------------------------------------------

LOAD:
             name  bus      p_mw        q_mvar  const_z_percent  const_i_percent  sn_mva  scaling  in_service type
0      Load 27 T1    0  0.126879  8.822826e-02              0.0              0.0     NaN      1.0        True  wye
1      Load 27 T2    0  0.126879  8.691782e-02              0.0              0.0     NaN      1.0        True  wye
2      Load 27 T3    0  0.126879  8.546835e-02              0.0              0.0     NaN      1.0        True  wye
3      Load 27 T4    0  0.126879  8.640007e-02              0.0              0.0     NaN      1.0        True  wye
4      Load 27 T5    0  0.128051  8.782213e-02              0.0              0.0     NaN      1.0        True  wye
5      Load 27 T6    0  0.146279  9.958710e-02              0.0              0.0     NaN      1.0        True  wye
6      Load 27 T7    0  0.165314  1.081255e-01              0.0              0.0     NaN      1.0        True  wye
7      Load 27 T8    0  0.297653  1.805314e-01              0.0              0.0     NaN      1.0        True  wye
8      Load 27 T9    0  0.295589  1.627636e-01              0.0              0.0     NaN      1.0        True  wye
9     Load 27 T10    0  0.293371  1.345556e-01              0.0              0.0     NaN      1.0        True  wye
10    Load 27 T11    0  0.292160  1.272199e-01              0.0              0.0     NaN      1.0        True  wye
11    Load 27 T12    0  0.273688  1.252618e-01              0.0              0.0     NaN      1.0        True  wye
12    Load 27 T13    0  0.294119  1.303287e-01              0.0              0.0     NaN      1.0        True  wye
13    Load 27 T14    0  0.293489  1.274235e-01              0.0              0.0     NaN      1.0        True  wye
14    Load 27 T15    0  0.293984  1.258993e-01              0.0              0.0     NaN      1.0        True  wye
15    Load 27 T16    0  0.296294  1.265109e-01              0.0              0.0     NaN      1.0        True  wye
16    Load 27 T17    0  0.196921  8.225176e-02              0.0              0.0     NaN      1.0        True  wye
17    Load 27 T18    0  0.165176  7.865219e-02              0.0              0.0     NaN      1.0        True  wye
18    Load 27 T19    0  0.166539  9.537983e-02              0.0              0.0     NaN      1.0        True  wye
19    Load 27 T20    0  0.156927  9.717500e-02              0.0              0.0     NaN      1.0        True  wye
20    Load 27 T21    0  0.156927  9.908454e-02              0.0              0.0     NaN      1.0        True  wye
21    Load 27 T22    0  0.147034  9.717249e-02              0.0              0.0     NaN      1.0        True  wye
22    Load 27 T23    0  0.142088  1.015367e-01              0.0              0.0     NaN      1.0        True  wye
23    Load 27 T24    0  0.126879  8.759057e-02              0.0              0.0     NaN      1.0        True  wye
24      Load 7 T1    1  0.125313  8.814750e-02              0.0              0.0     NaN      1.0        True  wye
25      Load 7 T2    1  0.125313  8.685325e-02              0.0              0.0     NaN      1.0        True  wye
26      Load 7 T3    1  0.125313  8.542167e-02              0.0              0.0     NaN      1.0        True  wye
27      Load 7 T4    1  0.125313  8.634189e-02              0.0              0.0     NaN      1.0        True  wye
28      Load 7 T5    1  0.126470  8.774639e-02              0.0              0.0     NaN      1.0        True  wye
29      Load 7 T6    1  0.144473  9.936612e-02              0.0              0.0     NaN      1.0        True  wye
30      Load 7 T7    1  0.163289  1.077991e-01              0.0              0.0     NaN      1.0        True  wye
31      Load 7 T8    1  0.294124  1.793111e-01              0.0              0.0     NaN      1.0        True  wye
32      Load 7 T9    1  0.292253  1.617161e-01              0.0              0.0     NaN      1.0        True  wye
33     Load 7 T10    1  0.290281  1.337885e-01              0.0              0.0     NaN      1.0        True  wye
34     Load 7 T11    1  0.289204  1.264238e-01              0.0              0.0     NaN      1.0        True  wye
35     Load 7 T12    1  0.271106  1.244279e-01              0.0              0.0     NaN      1.0        True  wye
36     Load 7 T13    1  0.290946  1.296585e-01              0.0              0.0     NaN      1.0        True  wye
37     Load 7 T14    1  0.290386  1.267562e-01              0.0              0.0     NaN      1.0        True  wye
38     Load 7 T15    1  0.290826  1.252997e-01              0.0              0.0     NaN      1.0        True  wye
39     Load 7 T16    1  0.292881  1.259389e-01              0.0              0.0     NaN      1.0        True  wye
40     Load 7 T17    1  0.194580  8.224479e-02              0.0              0.0     NaN      1.0        True  wye
41     Load 7 T18    1  0.163168  7.868966e-02              0.0              0.0     NaN      1.0        True  wye
42     Load 7 T19    1  0.164491  9.521078e-02              0.0              0.0     NaN      1.0        True  wye
43     Load 7 T20    1  0.154990  9.698380e-02              0.0              0.0     NaN      1.0        True  wye
44     Load 7 T21    1  0.154990  9.886976e-02              0.0              0.0     NaN      1.0        True  wye
45     Load 7 T22    1  0.145219  9.698131e-02              0.0              0.0     NaN      1.0        True  wye
46     Load 7 T23    1  0.140334  1.012917e-01              0.0              0.0     NaN      1.0        True  wye
47     Load 7 T24    1  0.125313  8.751769e-02              0.0              0.0     NaN      1.0        True  wye
48      Load 5 T1    2  0.002462 -6.780226e-07              0.0              0.0     NaN      1.0        True  wye
49      Load 5 T2    2  0.002385 -6.568596e-07              0.0              0.0     NaN      1.0        True  wye
50      Load 5 T3    2  0.002385 -6.568596e-07              0.0              0.0     NaN      1.0        True  wye
51      Load 5 T4    2  0.002387 -6.573267e-07              0.0              0.0     NaN      1.0        True  wye
52      Load 5 T5    2  0.003566 -9.819373e-07              0.0              0.0     NaN      1.0        True  wye
53      Load 5 T6    2  0.008369 -5.294496e-06              0.0              0.0     NaN      1.0        True  wye
54      Load 5 T7    2  0.010831 -9.181481e-06              0.0              0.0     NaN      1.0        True  wye
55      Load 5 T8    2  0.008841 -6.462893e-04              0.0              0.0     NaN      1.0        True  wye
56      Load 5 T9    2  0.007814 -1.734794e-04              0.0              0.0     NaN      1.0        True  wye
57     Load 5 T10    2  0.003844 -3.719280e-04              0.0              0.0     NaN      1.0        True  wye
58     Load 5 T11    2  0.003449 -5.994907e-05              0.0              0.0     NaN      1.0        True  wye
59     Load 5 T12    2  0.002994  6.085299e-04              0.0              0.0     NaN      1.0        True  wye
60     Load 5 T13    2  0.003930 -2.834233e-04              0.0              0.0     NaN      1.0        True  wye
61     Load 5 T14    2  0.003785 -1.042218e-06              0.0              0.0     NaN      1.0        True  wye
62     Load 5 T15    2  0.003864 -1.098447e-06              0.0              0.0     NaN      1.0        True  wye
63     Load 5 T16    2  0.004712 -6.598566e-04              0.0              0.0     NaN      1.0        True  wye
64     Load 5 T17    2  0.007052 -4.067955e-06              0.0              0.0     NaN      1.0        True  wye
65     Load 5 T18    2  0.007236 -4.238808e-06              0.0              0.0     NaN      1.0        True  wye
66     Load 5 T19    2  0.007151 -4.159869e-06              0.0              0.0     NaN      1.0        True  wye
67     Load 5 T20    2  0.008148 -5.088386e-06              0.0              0.0     NaN      1.0        True  wye
68     Load 5 T21    2  0.007977 -4.929266e-06              0.0              0.0     NaN      1.0        True  wye
69     Load 5 T22    2  0.005072 -2.223737e-06              0.0              0.0     NaN      1.0        True  wye
70     Load 5 T23    2  0.002669 -7.349242e-07              0.0              0.0     NaN      1.0        True  wye
71     Load 5 T24    2  0.002526 -6.956584e-07              0.0              0.0     NaN      1.0        True  wye
72     Load 13 T1    3  0.020774  6.217397e-04              0.0              0.0     NaN      1.0        True  wye
73     Load 13 T2    3  0.020774 -3.808510e-04              0.0              0.0     NaN      1.0        True  wye
74     Load 13 T3    3  0.020774 -7.016509e-04              0.0              0.0     NaN      1.0        True  wye
75     Load 13 T4    3  0.020774 -7.152315e-04              0.0              0.0     NaN      1.0        True  wye
76     Load 13 T5    3  0.021120 -7.233777e-04              0.0              0.0     NaN      1.0        True  wye
77     Load 13 T6    3  0.026252 -7.660789e-04              0.0              0.0     NaN      1.0        True  wye
78     Load 13 T7    3  0.034319 -2.522552e-04              0.0              0.0     NaN      1.0        True  wye
79     Load 13 T8    3  0.077478  9.705145e-03              0.0              0.0     NaN      1.0        True  wye
80     Load 13 T9    3  0.072477  2.921323e-03              0.0              0.0     NaN      1.0        True  wye
81    Load 13 T10    3  0.069757 -4.875002e-03              0.0              0.0     NaN      1.0        True  wye
82    Load 13 T11    3  0.069429 -6.676363e-03              0.0              0.0     NaN      1.0        True  wye
83    Load 13 T12    3  0.064458 -7.632611e-03              0.0              0.0     NaN      1.0        True  wye
84    Load 13 T13    3  0.071794 -5.119943e-03              0.0              0.0     NaN      1.0        True  wye
85    Load 13 T14    3  0.069862 -5.312412e-03              0.0              0.0     NaN      1.0        True  wye
86    Load 13 T15    3  0.070302 -5.441331e-03              0.0              0.0     NaN      1.0        True  wye
87    Load 13 T16    3  0.073487 -5.964621e-03              0.0              0.0     NaN      1.0        True  wye
88    Load 13 T17    3  0.046367 -6.350827e-03              0.0              0.0     NaN      1.0        True  wye
89    Load 13 T18    3  0.031335 -4.763579e-03              0.0              0.0     NaN      1.0        True  wye
90    Load 13 T19    3  0.031993 -4.361781e-03              0.0              0.0     NaN      1.0        True  wye
91    Load 13 T20    3  0.029311 -4.052302e-03              0.0              0.0     NaN      1.0        True  wye
92    Load 13 T21    3  0.029305 -3.080792e-03              0.0              0.0     NaN      1.0        True  wye
93    Load 13 T22    3  0.026467 -2.067877e-03              0.0              0.0     NaN      1.0        True  wye
94    Load 13 T23    3  0.025048 -8.485128e-04              0.0              0.0     NaN      1.0        True  wye
95    Load 13 T24    3  0.020774  4.038999e-04              0.0              0.0     NaN      1.0        True  wye
96     Load 10 T1    4  0.006925  0.000000e+00              0.0              0.0     NaN      1.0        True  wye
97     Load 10 T2    4  0.006925  0.000000e+00              0.0              0.0     NaN      1.0        True  wye
98     Load 10 T3    4  0.006925  0.000000e+00              0.0              0.0     NaN      1.0        True  wye
99     Load 10 T4    4  0.006925  0.000000e+00              0.0              0.0     NaN      1.0        True  wye
100    Load 10 T5    4  0.007040  0.000000e+00              0.0              0.0     NaN      1.0        True  wye
101    Load 10 T6    4  0.008751  0.000000e+00              0.0              0.0     NaN      1.0        True  wye
102    Load 10 T7    4  0.011416  0.000000e+00              0.0              0.0     NaN      1.0        True  wye
103    Load 10 T8    4  0.025607  3.811905e-03              0.0              0.0     NaN      1.0        True  wye
104    Load 10 T9    4  0.023689  1.550631e-03              0.0              0.0     NaN      1.0        True  wye
105   Load 10 T10    4  0.022454  0.000000e+00              0.0              0.0     NaN      1.0        True  wye
106   Load 10 T11    4  0.022165  0.000000e+00              0.0              0.0     NaN      1.0        True  wye
107   Load 10 T12    4  0.020291  0.000000e+00              0.0              0.0     NaN      1.0        True  wye
108   Load 10 T13    4  0.023244  0.000000e+00              0.0              0.0     NaN      1.0        True  wye
109   Load 10 T14    4  0.022507  0.000000e+00              0.0              0.0     NaN      1.0        True  wye
110   Load 10 T15    4  0.022727  0.000000e+00              0.0              0.0     NaN      1.0        True  wye
111   Load 10 T16    4  0.024127 -1.411351e-03              0.0              0.0     NaN      1.0        True  wye
112   Load 10 T17    4  0.015321 -3.811905e-03              0.0              0.0     NaN      1.0        True  wye
113   Load 10 T18    4  0.010399 -2.345565e-03              0.0              0.0     NaN      1.0        True  wye
114   Load 10 T19    4  0.010652  0.000000e+00              0.0              0.0     NaN      1.0        True  wye
115   Load 10 T20    4  0.009770  0.000000e+00              0.0              0.0     NaN      1.0        True  wye
116   Load 10 T21    4  0.009768  0.000000e+00              0.0              0.0     NaN      1.0        True  wye
117   Load 10 T22    4  0.008822  0.000000e+00              0.0              0.0     NaN      1.0        True  wye
118   Load 10 T23    4  0.008349  0.000000e+00              0.0              0.0     NaN      1.0        True  wye
119   Load 10 T24    4  0.006925  0.000000e+00              0.0              0.0     NaN      1.0        True  wye
120    Load 35 T1    5  0.042413  1.762566e-02              0.0              0.0     NaN      1.0        True  wye
121    Load 35 T2    5  0.042413  1.718761e-02              0.0              0.0     NaN      1.0        True  wye
122    Load 35 T3    5  0.042413  1.670309e-02              0.0              0.0     NaN      1.0        True  wye
123    Load 35 T4    5  0.042413  1.701454e-02              0.0              0.0     NaN      1.0        True  wye
124    Load 35 T5    5  0.043119  1.772607e-02              0.0              0.0     NaN      1.0        True  wye
125    Load 35 T6    5  0.053598  2.488911e-02              0.0              0.0     NaN      1.0        True  wye
126    Load 35 T7    5  0.070068  3.486193e-02              0.0              0.0     NaN      1.0        True  wye
127    Load 35 T8    5  0.158183  8.690084e-02              0.0              0.0     NaN      1.0        True  wye
128    Load 35 T9    5  0.147973  7.422729e-02              0.0              0.0     NaN      1.0        True  wye
129   Load 35 T10    5  0.142421  6.084895e-02              0.0              0.0     NaN      1.0        True  wye
130   Load 35 T11    5  0.141750  5.936882e-02              0.0              0.0     NaN      1.0        True  wye
131   Load 35 T12    5  0.131601  6.322617e-02              0.0              0.0     NaN      1.0        True  wye
132   Load 35 T13    5  0.146579  5.898999e-02              0.0              0.0     NaN      1.0        True  wye
133   Load 35 T14    5  0.142635  5.706145e-02              0.0              0.0     NaN      1.0        True  wye
134   Load 35 T15    5  0.143533  5.563892e-02              0.0              0.0     NaN      1.0        True  wye
135   Load 35 T16    5  0.150037  5.557246e-02              0.0              0.0     NaN      1.0        True  wye
136   Load 35 T17    5  0.094667  2.944100e-02              0.0              0.0     NaN      1.0        True  wye
137   Load 35 T18    5  0.063976  1.926893e-02              0.0              0.0     NaN      1.0        True  wye
138   Load 35 T19    5  0.065320  2.609514e-02              0.0              0.0     NaN      1.0        True  wye
139   Load 35 T20    5  0.059843  2.557973e-02              0.0              0.0     NaN      1.0        True  wye
140   Load 35 T21    5  0.059830  2.629941e-02              0.0              0.0     NaN      1.0        True  wye
141   Load 35 T22    5  0.054037  2.412024e-02              0.0              0.0     NaN      1.0        True  wye
142   Load 35 T23    5  0.051139  2.488989e-02              0.0              0.0     NaN      1.0        True  wye
143   Load 35 T24    5  0.042413  1.741250e-02              0.0              0.0     NaN      1.0        True  wye
144    Load 15 T1    6  0.003486 -1.558101e-03              0.0              0.0     NaN      1.0        True  wye
145    Load 15 T2    6  0.003486 -5.123249e-04              0.0              0.0     NaN      1.0        True  wye
146    Load 15 T3    6  0.003486 -1.706649e-04              0.0              0.0     NaN      1.0        True  wye
147    Load 15 T4    6  0.003486 -1.742961e-04              0.0              0.0     NaN      1.0        True  wye
148    Load 15 T5    6  0.003486 -3.706186e-04              0.0              0.0     NaN      1.0        True  wye
149    Load 15 T6    6  0.003486 -1.090947e-03              0.0              0.0     NaN      1.0        True  wye
150    Load 15 T7    6  0.009066 -2.719449e-03              0.0              0.0     NaN      1.0        True  wye
151    Load 15 T8    6  0.014703 -9.680113e-03              0.0              0.0     NaN      1.0        True  wye
152    Load 15 T9    6  0.025557 -3.467003e-03              0.0              0.0     NaN      1.0        True  wye
153   Load 15 T10    6  0.022259  3.313891e-04              0.0              0.0     NaN      1.0        True  wye
154   Load 15 T11    6  0.020167  1.829121e-03              0.0              0.0     NaN      1.0        True  wye
155   Load 15 T12    6  0.018323  3.811905e-03              0.0              0.0     NaN      1.0        True  wye
156   Load 15 T13    6  0.022169  0.000000e+00              0.0              0.0     NaN      1.0        True  wye
157   Load 15 T14    6  0.021603  2.216332e-04              0.0              0.0     NaN      1.0        True  wye
158   Load 15 T15    6  0.022811  0.000000e+00              0.0              0.0     NaN      1.0        True  wye
159   Load 15 T16    6  0.026591 -5.612858e-04              0.0              0.0     NaN      1.0        True  wye
160   Load 15 T17    6  0.029402  0.000000e+00              0.0              0.0     NaN      1.0        True  wye
161   Load 15 T18    6  0.022675  0.000000e+00              0.0              0.0     NaN      1.0        True  wye
162   Load 15 T19    6  0.020153  0.000000e+00              0.0              0.0     NaN      1.0        True  wye
163   Load 15 T20    6  0.020263  0.000000e+00              0.0              0.0     NaN      1.0        True  wye
164   Load 15 T21    6  0.004057  0.000000e+00              0.0              0.0     NaN      1.0        True  wye
165   Load 15 T22    6  0.003486 -7.433216e-05              0.0              0.0     NaN      1.0        True  wye
166   Load 15 T23    6  0.003486 -6.804533e-04              0.0              0.0     NaN      1.0        True  wye
167   Load 15 T24    6  0.003486 -1.424535e-03              0.0              0.0     NaN      1.0        True  wye
168     Load 1 T1    7  0.031660 -1.701774e-04              0.0              0.0     NaN      1.0        True  wye
169     Load 1 T2    7  0.030395 -1.609164e-04              0.0              0.0     NaN      1.0        True  wye
170     Load 1 T3    7  0.029763 -1.562859e-04              0.0              0.0     NaN      1.0        True  wye
171     Load 1 T4    7  0.030286 -1.601178e-04              0.0              0.0     NaN      1.0        True  wye
172     Load 1 T5    7  0.035517 -2.080600e-04              0.0              0.0     NaN      1.0        True  wye
173     Load 1 T6    7  0.045499 -3.381069e-04              0.0              0.0     NaN      1.0        True  wye
174     Load 1 T7    7  0.053790 -4.936069e-04              0.0              0.0     NaN      1.0        True  wye
175     Load 1 T8    7  0.053815 -8.389907e-03              0.0              0.0     NaN      1.0        True  wye
176     Load 1 T9    7  0.051262 -5.232278e-03              0.0              0.0     NaN      1.0        True  wye
177    Load 1 T10    7  0.048644 -6.190810e-04              0.0              0.0     NaN      1.0        True  wye
178    Load 1 T11    7  0.048738 -6.149662e-04              0.0              0.0     NaN      1.0        True  wye
179    Load 1 T12    7  0.047354 -5.562974e-04              0.0              0.0     NaN      1.0        True  wye
180    Load 1 T13    7  0.047080 -6.093763e-04              0.0              0.0     NaN      1.0        True  wye
181    Load 1 T14    7  0.046168 -5.803995e-04              0.0              0.0     NaN      1.0        True  wye
182    Load 1 T15    7  0.048674 -6.248597e-04              0.0              0.0     NaN      1.0        True  wye
183    Load 1 T16    7  0.061084  1.833644e-03              0.0              0.0     NaN      1.0        True  wye
184    Load 1 T17    7  0.076499  3.632470e-03              0.0              0.0     NaN      1.0        True  wye
185    Load 1 T18    7  0.077583  1.470777e-03              0.0              0.0     NaN      1.0        True  wye
186    Load 1 T19    7  0.072461 -7.791019e-04              0.0              0.0     NaN      1.0        True  wye
187    Load 1 T20    7  0.069968 -7.232026e-04              0.0              0.0     NaN      1.0        True  wye
188    Load 1 T21    7  0.064691 -6.385814e-04              0.0              0.0     NaN      1.0        True  wye
189    Load 1 T22    7  0.053092 -4.358012e-04              0.0              0.0     NaN      1.0        True  wye
190    Load 1 T23    7  0.042802 -3.037072e-04              0.0              0.0     NaN      1.0        True  wye
191    Load 1 T24    7  0.034189 -1.921084e-04              0.0              0.0     NaN      1.0        True  wye
192    Load 36 T1    8  0.024236 -1.981158e-04              0.0              0.0     NaN      1.0        True  wye
193    Load 36 T2    8  0.024236 -1.981155e-04              0.0              0.0     NaN      1.0        True  wye
194    Load 36 T3    8  0.024236 -1.981154e-04              0.0              0.0     NaN      1.0        True  wye
195    Load 36 T4    8  0.024236 -1.981154e-04              0.0              0.0     NaN      1.0        True  wye
196    Load 36 T5    8  0.024639 -2.038434e-04              0.0              0.0     NaN      1.0        True  wye
197    Load 36 T6    8  0.030628 -3.194954e-04              0.0              0.0     NaN      1.0        True  wye
198    Load 36 T7    8  0.040039 -5.351715e-04              0.0              0.0     NaN      1.0        True  wye
199    Load 36 T8    8  0.090390  1.350195e-02              0.0              0.0     NaN      1.0        True  wye
...

EXT_GRID:
        name  bus  vm_pu  va_degree  slack_weight  in_service
0  ExtGrid 0   68    1.0        0.0           1.0        True
--------------------------------------------------

LINE:
        name std_type  from_bus  to_bus  length_km  r_ohm_per_km  x_ohm_per_km  c_nf_per_km  g_us_per_km  max_i_ka   df  parallel  type  in_service   geo
0     Line 0     None        69      50   0.325402          0.09          0.19          0.0          0.0       3.0  1.0         1  None        True  None
1   Line 130     None        59      18   0.073080          0.09          0.19          0.0          0.0       3.0  1.0         1  None        True  None
2     Line 4     None        69      56   1.362353          0.09          0.19          0.0          0.0       3.0  1.0         1  None        True  None
3   Line 132     None        59      27   0.105582          0.09          0.19          0.0          0.0       3.0  1.0         1  None        True  None
4   Line 134     None        61       3   0.070987          0.09          0.19          0.0          0.0       3.0  1.0         1  None        True  None
5     Line 8     None        69      60   0.248828          0.09          0.19          0.0          0.0       3.0  1.0         1  None        True  None
6    Line 11     None        69      66   1.447779          0.09          0.19          0.0          0.0       3.0  1.0         1  None        True  None
7    Line 12     None        50       0   0.058846          0.09          0.19          0.0          0.0       3.0  1.0         1  None        True  None
8    Line 13     None        50       5   0.046891          0.09          0.19          0.0          0.0       3.0  1.0         1  None        True  None
9    Line 14     None        50      12   0.114288          0.09          0.19          0.0          0.0       3.0  1.0         1  None        True  None
10  Line 147     None        63      44   0.126347          0.09          0.19          0.0          0.0       3.0  1.0         1  None        True  None
11  Line 149     None        63      49   0.051107          0.09          0.19          0.0          0.0       3.0  1.0         1  None        True  None
12  Line 154     None        65      46   0.008366          0.09          0.19          0.0          0.0       3.0  1.0         1  None        True  None
13  Line 156     None        67      38   0.064330          0.09          0.19          0.0          0.0       3.0  1.0         1  None        True  None
14  Line 157     None        67      39   0.068479          0.09          0.19          0.0          0.0       3.0  1.0         1  None        True  None
15   Line 33     None        52      17   0.052119          0.09          0.19          0.0          0.0       3.0  1.0         1  None        True  None
16   Line 34     None        52      24   0.058212          0.09          0.19          0.0          0.0       3.0  1.0         1  None        True  None
17   Line 36     None        52      28   0.072860          0.09          0.19          0.0          0.0       3.0  1.0         1  None        True  None
18  Line 164     None         1       9   0.089443          0.09          0.19          0.0          0.0       3.0  1.0         1  None        True  None
19  Line 165     None        11       9   0.139284          0.09          0.19          0.0          0.0       3.0  1.0         1  None        True  None
20  Line 166     None        21      23   0.152971          0.09          0.19          0.0          0.0       3.0  1.0         1  None        True  None
21  Line 169     None        11      21   0.148661          0.09          0.19          0.0          0.0       3.0  1.0         1  None        True  None
22   Line 42     None        54      41   0.026762          0.09          0.19          0.0          0.0       3.0  1.0         1  None        True  None
23   Line 43     None        56      33   0.121512          0.09          0.19          0.0          0.0       3.0  1.0         1  None        True  None
24   Line 44     None        56      34   0.120525          0.09          0.19          0.0          0.0       3.0  1.0         1  None        True  None
25  Line 172     None        40      41   0.080000          0.09          0.19          0.0          0.0       3.0  1.0         1  None        True  None
26  Line 178     None        12      17   0.058310          0.09          0.19          0.0          0.0       3.0  1.0         1  None        True  None
27   Line 60     None        58      23   0.018333          0.09          0.19          0.0          0.0       3.0  1.0         1  None        True  None
28   Line 61     None        60       1   0.078375          0.09          0.19          0.0          0.0       3.0  1.0         1  None        True  None
29  Line 188     None        29      25   0.120416          0.09          0.19          0.0          0.0       3.0  1.0         1  None        True  None
30  Line 189     None        30      28   0.084853          0.09          0.19          0.0          0.0       3.0  1.0         1  None        True  None
31  Line 190     None        29      28   0.076158          0.09          0.19          0.0          0.0       3.0  1.0         1  None        True  None
32   Line 67     None        62      42   0.127806          0.09          0.19          0.0          0.0       3.0  1.0         1  None        True  None
33   Line 69     None        62      48   0.081701          0.09          0.19          0.0          0.0       3.0  1.0         1  None        True  None
34  Line 197     None        45      48   0.092195          0.09          0.19          0.0          0.0       3.0  1.0         1  None        True  None
35   Line 71     None        64      42   0.078953          0.09          0.19          0.0          0.0       3.0  1.0         1  None        True  None
36  Line 200     None         4       7   0.067082          0.09          0.19          0.0          0.0       3.0  1.0         1  None        True  None
37  Line 201     None        13       7   0.092195          0.09          0.19          0.0          0.0       3.0  1.0         1  None        True  None
38   Line 74     None        66      37   0.021198          0.09          0.19          0.0          0.0       3.0  1.0         1  None        True  None
39  Line 205     None        14      22   0.092195          0.09          0.19          0.0          0.0       3.0  1.0         1  None        True  None
40   Line 78     None        51       8   0.052958          0.09          0.19          0.0          0.0       3.0  1.0         1  None        True  None
41   Line 79     None        51      10   0.134898          0.09          0.19          0.0          0.0       3.0  1.0         1  None        True  None
42  Line 208     None         3       2   0.060828          0.09          0.19          0.0          0.0       3.0  1.0         1  None        True  None
43  Line 211     None        27      16   0.120416          0.09          0.19          0.0          0.0       3.0  1.0         1  None        True  None
44  Line 212     None         3      14   0.143178          0.09          0.19          0.0          0.0       3.0  1.0         1  None        True  None
45  Line 215     None        18      13   0.063246          0.09          0.19          0.0          0.0       3.0  1.0         1  None        True  None
46  Line 216     None         6       3   0.063246          0.09          0.19          0.0          0.0       3.0  1.0         1  None        True  None
47  Line 219     None        32      35   0.058310          0.09          0.19          0.0          0.0       3.0  1.0         1  None        True  None
48  Line 220     None        36      35   0.060000          0.09          0.19          0.0          0.0       3.0  1.0         1  None        True  None
49   Line 98     None        55      35   0.125244          0.09          0.19          0.0          0.0       3.0  1.0         1  None        True  None
50  Line 100     None        55      47   0.046108          0.09          0.19          0.0          0.0       3.0  1.0         1  None        True  None
51  Line 101     None        57      31   0.043465          0.09          0.19          0.0          0.0       3.0  1.0         1  None        True  None
52  Line 102     None        57      32   0.024374          0.09          0.19          0.0          0.0       3.0  1.0         1  None        True  None
53  Line 228     None         8      15   0.143178          0.09          0.19          0.0          0.0       3.0  1.0         1  None        True  None
54  Line 229     None        19      15   0.080623          0.09          0.19          0.0          0.0       3.0  1.0         1  None        True  None
55  Line 230     None        10      20   0.156205          0.09          0.19          0.0          0.0       3.0  1.0         1  None        True  None
56  Line 231     None        26      20   0.120416          0.09          0.19          0.0          0.0       3.0  1.0         1  None        True  None
57  Line 241     None        44      39   0.058310          0.09          0.19          0.0          0.0       3.0  1.0         1  None        True  None
58  Line 248     None        44      43   0.102956          0.09          0.19          0.0          0.0       3.0  1.0         1  None        True  None
--------------------------------------------------

TRAFO:
                   name std_type  hv_bus  lv_bus  sn_mva  vn_hv_kv  vn_lv_kv  vk_percent  vkr_percent  pfe_kw  i0_percent  shift_degree tap_side  tap_neutral  tap_min  tap_max  tap_step_percent  tap_step_degree  tap_pos tap_changer_type  id_characteristic_table  tap_dependency_table  parallel   df  in_service
0  MV/LV Transformer 51     None      50      51    10.0      15.0       0.4        0.01         0.01    0.01        0.01           0.0     None          NaN      NaN      NaN               NaN              NaN      NaN              NaN                     <NA>                 False         1  1.0        True
1  MV/LV Transformer 53     None      52      53    10.0      15.0       0.4        0.01         0.01    0.01        0.01           0.0     None          NaN      NaN      NaN               NaN              NaN      NaN              NaN                     <NA>                 False         1  1.0        True
2  MV/LV Transformer 54     None      54      55    10.0      15.0       0.4        0.01         0.01    0.01        0.01           0.0     None          NaN      NaN      NaN               NaN              NaN      NaN              NaN                     <NA>                 False         1  1.0        True
3  MV/LV Transformer 55     None      56      57    10.0      15.0       0.4        0.01         0.01    0.01        0.01           0.0     None          NaN      NaN      NaN               NaN              NaN      NaN              NaN                     <NA>                 False         1  1.0        True
4  MV/LV Transformer 58     None      58      59    10.0      15.0       0.4        0.01         0.01    0.01        0.01           0.0     None          NaN      NaN      NaN               NaN              NaN      NaN              NaN                     <NA>                 False         1  1.0        True
5  MV/LV Transformer 59     None      60      61    10.0      15.0       0.4        0.01         0.01    0.01        0.01           0.0     None          NaN      NaN      NaN               NaN              NaN      NaN              NaN                     <NA>                 False         1  1.0        True
6  MV/LV Transformer 60     None      62      63    10.0      15.0       0.4        0.01         0.01    0.01        0.01           0.0     None          NaN      NaN      NaN               NaN              NaN      NaN              NaN                     <NA>                 False         1  1.0        True
7  MV/LV Transformer 61     None      64      65    10.0      15.0       0.4        0.01         0.01    0.01        0.01           0.0     None          NaN      NaN      NaN               NaN              NaN      NaN              NaN                     <NA>                 False         1  1.0        True
8  MV/LV Transformer 62     None      66      67    10.0      15.0       0.4        0.01         0.01    0.01        0.01           0.0     None          NaN      NaN      NaN               NaN              NaN      NaN              NaN                     <NA>                 False         1  1.0        True
9   Slack Transformer 0     None      68      69    40.0      70.0      15.0        0.01         0.01    0.01        0.01           0.0     None          NaN      NaN      NaN               NaN              NaN      NaN              NaN                     <NA>                 False         1  1.0        True
--------------------------------------------------

RES_BUS:
       vm_pu  va_degree      p_mw        q_mvar
0   0.999846  -0.010350  0.126879  8.759057e-02
1   0.999861  -0.010033  0.125313  8.751769e-02
2   0.995514  -0.544981  0.002526 -6.956584e-07
3   0.995601  -0.534431  0.020774  4.038999e-04
4   0.992197  -0.944583  0.006925  0.000000e+00
5   0.999852  -0.010184  0.042413  1.741250e-02
6   0.995584  -0.552494  0.003486 -1.424535e-03
7   0.992461  -0.912488  0.034189 -1.921084e-04
8   0.998202  -0.210953  0.024236 -1.983039e-04
9   0.999838  -0.012071  0.248207  3.294587e-03
10  0.996253  -0.451285  0.018177 -3.813211e-04
11  0.999817  -0.013581  0.017311  3.714736e-03
12  0.999827  -0.012443  0.016157  2.344159e-03
13  0.994599  -0.650639  0.025967 -3.515779e-04
14  0.989127  -1.338175  0.018177 -1.139572e-03
15  0.995692  -0.517772  0.030295  2.037874e-04
16  0.995543  -0.534053  0.030295 -1.374194e-04
17  0.999814  -0.013592  0.375939  1.303079e-01
18  0.996988  -0.358418  0.001058 -4.324020e-04
19  0.995687  -0.523886  0.000926 -3.783517e-04
20  0.993665  -0.768240  0.015580 -1.970403e-04
21  0.999796  -0.015081  0.098684  6.309126e-02
22  0.985873  -1.740417  0.062324 -4.360215e-04
23  0.999789  -0.016116  0.030171 -9.007035e-03
24  0.999816  -0.013869  0.002883 -2.490568e-02
25  0.999816  -0.014476  0.030295 -5.419528e-03
26  0.992719  -0.883265  0.013849  0.000000e+00
27  0.997594  -0.283600  0.006681 -1.770256e-04
28  0.999816  -0.014105  0.020196 -9.990847e-03
29  0.999817  -0.014284  0.003364 -2.597481e-02
30  0.999816  -0.014128  0.004008 -2.927802e-03
31  0.999485  -0.061076  0.016157 -1.355287e-05
32  0.997846  -0.256775  0.020196 -6.435880e-04
33  0.999883  -0.013305  0.003295 -1.447278e-02
34  0.999878  -0.013416  0.036354  1.492500e-02
35  0.993658  -0.760999  0.010387 -2.797775e-03
36  0.993655  -0.764480  0.000705 -2.882680e-04
37  0.999791  -0.022479  0.016157  3.845876e-03
38  0.998771  -0.092429  0.018177  4.673995e-03
39  0.988592  -1.396620  0.010684 -1.254595e-02
40  0.985216  -1.748835  0.002614 -1.068402e-03
41  0.985216  -1.748822  0.109649  1.136377e-03
42  0.959781  -4.758804  0.164473 -4.298491e-06
43  0.978047  -2.637490  0.015580 -3.033349e-05
44  0.978968  -2.523398  0.010845 -9.037715e-03
45  0.959790  -4.757743  0.012118  0.000000e+00
46  0.959653  -4.774958  0.025967 -6.740487e-06
47  0.985179  -1.754103  0.001648 -6.864761e-05
48  0.959790  -4.757684  0.024236 -1.142018e-07
49  0.959250  -4.826218  0.018177 -2.098904e-05
50  0.999854  -0.010107  0.000000  0.000000e+00
51  0.999853  -0.010107  0.000000  0.000000e+00
52  0.999815  -0.013827  0.000000  0.000000e+00
53  0.999815  -0.013827  0.000000  0.000000e+00
54  0.985217  -1.748672  0.000000  0.000000e+00
55  0.985218  -1.748673  0.000000  0.000000e+00
56  0.999882  -0.013245  0.000000  0.000000e+00
57  0.999880  -0.013244  0.000000  0.000000e+00
58  0.999788  -0.016209  0.000000  0.000000e+00
59  0.999787  -0.016209  0.000000  0.000000e+00
60  0.999890  -0.007930  0.000000  0.000000e+00
61  0.999889  -0.007929  0.000000  0.000000e+00
62  0.959791  -4.757528  0.000000  0.000000e+00
63  0.959794  -4.757529  0.000000  0.000000e+00
64  0.959780  -4.758910  0.000000  0.000000e+00
65  0.959780  -4.758909  0.000000  0.000000e+00
66  0.999791  -0.022464  0.000000  0.000000e+00
67  0.999788  -0.022460  0.000000  0.000000e+00
68  1.000000   0.000000 -1.989670 -3.399644e-01
69  0.999995   0.000048  0.000000  0.000000e+00
--------------------------------------------------

RES_LINE:
    p_from_mw   q_from_mvar   p_to_mw     q_to_mvar         pl_mw       ql_mvar  i_from_ka   i_to_ka      i_ka  vm_from_pu  va_from_degree  vm_to_pu  va_to_degree  loading_percent
0    0.725740  1.705890e-01 -0.725668 -1.704362e-01  7.234408e-05  1.527264e-04   0.028695  0.028695  0.028695    0.999995        0.000048  0.999854     -0.010107         0.956507
1    0.068585 -3.334109e-05 -0.068392  4.417351e-04  1.934498e-04  4.083940e-04   0.099015  0.099015  0.099015    0.999787       -0.016209  0.996988     -0.358418         3.300511
2    0.202820  2.466830e-03 -0.202798 -2.419498e-03  2.242020e-05  4.733154e-05   0.007807  0.007807  0.007807    0.999995        0.000048  0.999882     -0.013245         0.260239
3    0.037120 -9.196561e-06 -0.037038  1.820289e-04  8.186794e-05  1.728323e-04   0.053589  0.053589  0.053589    0.999787       -0.016209  0.997594     -0.283600         1.786314
4    0.108501 -3.302131e-05 -0.108031  1.025623e-03  4.701796e-04  9.926015e-04   0.156625  0.156625  0.156625    0.999889       -0.007929  0.995601     -0.534431         5.220830
5    0.733999  1.507172e-01 -0.733943 -1.505992e-01  5.588445e-05  1.179783e-04   0.028841  0.028841  0.028841    0.999995        0.000048  0.999890     -0.007930         0.961374
6    0.327090  1.219142e-02 -0.327028 -1.206044e-02  6.204475e-05  1.309834e-04   0.012599  0.012599  0.012599    0.999995        0.000048  0.999791     -0.022464         0.419951
7    0.126880  8.759175e-02 -0.126879 -8.759057e-02  5.596874e-07  1.181562e-06   0.005935  0.005935  0.005935    0.999854       -0.010107  0.999846     -0.010350         0.197839
8    0.042413  1.741258e-02 -0.042413 -1.741250e-02  3.943851e-08  8.325908e-08   0.001765  0.001765  0.001765    0.999854       -0.010107  0.999852     -0.010184         0.058832
9    0.452867  6.446368e-02 -0.452858 -6.444348e-02  9.568461e-06  2.020009e-05   0.017609  0.017609  0.017609    0.999854       -0.010107  0.999827     -0.012443         0.586972
10  -0.245006 -1.843620e-03  0.249637  1.162089e-02  4.631340e-03  9.777273e-03   0.368459  0.368459  0.368459    0.959794       -4.757529  0.978968     -2.523398        12.281979
11   0.018187  8.025805e-07 -0.018177  2.098904e-05  1.032235e-05  2.179162e-05   0.027351  0.027351  0.027351    0.959794       -4.757529  0.959250     -4.826218         0.911686
12   0.025970  5.330562e-07 -0.025967  6.740487e-06  3.445363e-06  7.273543e-06   0.039056  0.039056  0.039056    0.959780       -4.758909  0.959653     -4.774958         1.301861
13   0.018190  4.700970e-03 -0.018177 -4.673995e-03  1.277754e-05  2.697481e-05   0.027123  0.027123  0.027123    0.999788       -0.022460  0.998771     -0.092429         0.904095
14   0.292671  2.514058e-03 -0.289369  4.454843e-03  3.301058e-03  6.968901e-03   0.422539  0.422539  0.422539    0.999788       -0.022460  0.988592     -1.396620        14.084628
15  -0.060757  6.821850e-02  0.060757 -6.821813e-02  1.740420e-07  3.674220e-07   0.003517  0.003517  0.003517    0.999815       -0.013827  0.999814     -0.013592         0.117226
16   0.002883 -2.490565e-02 -0.002883  2.490568e-02  1.464242e-08  3.091178e-08   0.000965  0.000965  0.000965    0.999815       -0.013827  0.999816     -0.013869         0.032173
17   0.057864 -4.431243e-02 -0.057863  4.431275e-02  1.548637e-07  3.269345e-07   0.002806  0.002806  0.002806    0.999815       -0.013827  0.999816     -0.014105         0.093525
18   0.500106  6.208745e-02 -0.500097 -6.206827e-02  9.088522e-06  1.918688e-05   0.019400  0.019400  0.019400    0.999861       -0.010033  0.999838     -0.012071         0.646653
19  -0.251887 -5.876581e-02  0.251890  5.877368e-02  3.728614e-06  7.871518e-06   0.009957  0.009957  0.009957    0.999817       -0.013581  0.999838     -0.012071         0.331910
20   0.135888 -8.047479e-03 -0.135887  8.049874e-03  1.134297e-06  2.394627e-06   0.005241  0.005241  0.005241    0.999796       -0.015081  0.999789     -0.016116         0.174685
21   0.234575  5.505107e-02 -0.234572 -5.504378e-02  3.453531e-06  7.290788e-06   0.009276  0.009276  0.009276    0.999817       -0.013581  0.999796     -0.015081         0.309194
22   0.112263  6.826915e-05 -0.112263 -6.797573e-05  1.389923e-07  2.934281e-07   0.004386  0.004386  0.004386    0.985217       -1.748672  0.985216     -1.748822         0.146195
23   0.003295 -1.447276e-02 -0.003295  1.447278e-02  1.071108e-08  2.261229e-08   0.000571  0.000571  0.000571    0.999882       -0.013245  0.999883     -0.013305         0.019046
24   0.036354  1.492516e-02 -0.036354 -1.492500e-02  7.447081e-08  1.572162e-07   0.001513  0.001513  0.001513    0.999882       -0.013245  0.999878     -0.013416         0.050426
25  -0.002614  1.068402e-03  0.002614 -1.068401e-03  2.629754e-10  5.551703e-10   0.000110  0.000110  0.000110    0.985216       -1.748835  0.985216     -1.748822         0.003678
26   0.436700  6.209932e-02 -0.436696 -6.208974e-02  4.539535e-06  9.583462e-06   0.016981  0.016981  0.016981    0.999827       -0.012443  0.999814     -0.013592         0.566021
27  -0.105715 -9.569880e-04  0.105715  9.571611e-04  8.199319e-08  1.730967e-07   0.004070  0.004070  0.004070    0.999788       -0.016209  0.999789     -0.016116         0.135667
28   0.625432  1.496325e-01 -0.625419 -1.496051e-01  1.296788e-05  2.737663e-05   0.024755  0.024755  0.024755    0.999890       -0.007930  0.999861     -0.010033         0.825166
29   0.030295 -5.419432e-03 -0.030295  5.419528e-03  4.563718e-08  9.634516e-08   0.001185  0.001185  0.001185    0.999817       -0.014284  0.999816     -0.014476         0.039492
30  -0.004008  2.927802e-03  0.004008 -2.927800e-03  8.365839e-10  1.766122e-09   0.000191  0.000191  0.000191    0.999816       -0.014128  0.999816     -0.014105         0.006370
31  -0.033659  3.139424e-02  0.033659 -3.139411e-02  6.455947e-08  1.362922e-07   0.001772  0.001772  0.001772    0.999817       -0.014284  0.999816     -0.014105         0.059064
32   0.190455  9.216648e-04 -0.190453 -9.174150e-04  2.013044e-06  4.249759e-06   0.007638  0.007638  0.007638    0.959791       -4.757528  0.959781     -4.758804         0.254593
33   0.036354 -2.817482e-09 -0.036354  1.017966e-07  4.688486e-08  9.897916e-08   0.001458  0.001458  0.001458    0.959791       -4.757528  0.959790     -4.757684         0.048596
34  -0.012118  2.595380e-12  0.012118  1.240772e-08  5.878570e-09  1.241031e-08   0.000486  0.000486  0.000486    0.959790       -4.757743  0.959790     -4.757684         0.016199
35  -0.025980 -9.216646e-04  0.025980  9.217135e-04  2.316835e-08  4.891096e-08   0.001043  0.001043  0.001043    0.959780       -4.758910  0.959781     -4.758804         0.034750
36  -0.006925  2.048193e-15  0.006926  3.879914e-06  1.837854e-06  3.879914e-06   0.010073  0.010073  0.010073    0.992197       -0.944583  0.992461     -0.912488         0.335776
37   0.041204 -3.244520e-07 -0.041115  1.882285e-04  8.900718e-05  1.879040e-04   0.059797  0.059797  0.059797    0.994599       -0.650639  0.992461     -0.912488         1.993217
38   0.016157  3.845881e-03 -0.016157 -3.845876e-03  2.339971e-09  4.939939e-09   0.000639  0.000639  0.000639    0.999791       -0.022464  0.999791     -0.022479         0.021313
39   0.062531  1.533107e-06 -0.062324  4.360215e-04  2.072627e-04  4.375546e-04   0.091248  0.091248  0.091248    0.989127       -1.338175  0.985873     -1.740417         3.041604
40   0.055628 -1.094260e-05 -0.055536  2.056020e-04  9.220708e-05  1.946594e-04   0.080304  0.080304  0.080304    0.999853       -0.010107  0.998202     -0.210953         2.676789
41   0.047870 -2.047781e-05 -0.047696  3.876745e-04  1.739353e-04  3.671967e-04   0.069105  0.069105  0.069105    0.999853       -0.010107  0.996253     -0.451285         2.303499
42   0.002526 -2.305382e-07 -0.002526  6.956584e-07  2.203201e-07  4.651201e-07   0.003663  0.003663  0.003663    0.995601       -0.534431  0.995514     -0.544981         0.122088
43   0.030357 -5.003327e-06 -0.030295  1.374194e-04  6.272340e-05  1.324161e-04   0.043923  0.043923  0.043923    0.997594       -0.283600  0.995543     -0.534053         1.464096
44   0.081244 -5.831351e-06 -0.080708  1.138039e-03  5.363090e-04  1.132208e-03   0.117784  0.117784  0.117784    0.995601       -0.534431  0.989127     -1.338175         3.926141
45   0.067334 -9.333106e-06 -0.067171  3.519024e-04  1.622697e-04  3.425693e-04   0.097481  0.097481  0.097481    0.996988       -0.358418  0.994599     -0.650639         3.249380
46  -0.003486  1.424535e-03  0.003486 -1.423461e-03  5.089816e-07  1.074517e-06   0.005460  0.005460  0.005460    0.995584       -0.552494  0.995601     -0.534431         0.181984
47   0.126482  9.856363e-04 -0.125955  1.269418e-04  5.270107e-04  1.112578e-03   0.182961  0.182961  0.182961    0.997846       -0.256775  0.993658     -0.760999         6.098694
48  -0.000705  2.882680e-04  0.000705 -2.882261e-04  1.984971e-08  4.190494e-08   0.001107  0.001107  0.001107    0.993655       -0.764480  0.993658     -0.760999         0.036898
49  -0.113921 -9.703801e-04  0.114863  2.959059e-03  9.420057e-04  1.988679e-03   0.166904  0.166904  0.166904    0.985218       -1.748673  0.993658     -0.760999         5.563457
50   0.001648 -6.849422e-05 -0.001648  6.864761e-05  7.265966e-08  1.533926e-07   0.002416  0.002416  0.002416    0.985218       -1.748673  0.985179     -1.754103         0.080530
51   0.016164 -6.455149e-08 -0.016157  1.355287e-05  6.389203e-06  1.348832e-05   0.023333  0.023333  0.023333    0.999880       -0.013244  0.999485     -0.061076         0.777764
52   0.146975  9.674562e-04 -0.146679 -3.420483e-04  2.962458e-04  6.254079e-04   0.212170  0.212170  0.212170    0.999880       -0.013244  0.997846     -0.256775         7.072330
53   0.031300 -7.298102e-06 -0.031221  1.744677e-04  7.918559e-05  1.671696e-04   0.045259  0.045259  0.045259    0.998202       -0.210953  0.995692     -0.517772         1.508626
54  -0.000926  3.783517e-04  0.000926 -3.782551e-04  4.575982e-08  9.660406e-08   0.001450  0.001450  0.001450    0.995687       -0.523886  0.995692     -0.517772         0.048329
55   0.029520 -6.353443e-06 -0.029442  1.692109e-04  7.714301e-05  1.628575e-04   0.042768  0.042768  0.042768    0.996253       -0.451285  0.993665     -0.768240         1.425600
56  -0.013849  2.357327e-16  0.013862  2.782939e-05  1.318234e-05  2.782939e-05   0.020136  0.020136  0.020136    0.992719       -0.883265  0.993665     -0.768240         0.671199
57  -0.276077 -2.583869e-03  0.278685  8.091103e-03  2.608690e-03  5.507234e-03   0.407061  0.407061  0.407061    0.978968       -2.523398  0.988592     -1.396620        13.568703
58   0.015595  6.915100e-07 -0.015580  3.033349e-05  1.469605e-05  3.102500e-05   0.022993  0.022993  0.022993    0.978968       -2.523398  0.978047     -2.637490         0.766427
--------------------------------------------------

RES_TRAFO:
    p_hv_mw  q_hv_mvar       p_lv_mw     q_lv_mvar     pl_mw   ql_mvar   i_hv_ka       i_lv_ka  vm_hv_pu  va_hv_degree  vm_lv_pu  va_lv_degree  loading_percent
0  0.103508   0.000968 -1.034981e-01  3.142041e-05  0.000010  0.001000  0.003985  1.494087e-01  0.999854     -0.010107  0.999853     -0.010107         1.035279
1  0.000010   0.001000 -1.454923e-11 -1.069712e-14  0.000010  0.001000  0.000038  2.100389e-11  0.999815     -0.013827  0.999815     -0.013827         0.009998
2 -0.112263  -0.000068  1.122732e-01  1.038874e-03  0.000010  0.000971  0.004386  1.644909e-01  0.985217     -1.748672  0.985218     -1.748673         1.139626
3  0.163149   0.001967 -1.631384e-01 -9.673916e-04  0.000010  0.001000  0.006281  2.355024e-01  0.999882     -0.013245  0.999880     -0.013244         1.631798
4  0.105715   0.000957 -1.057052e-01  4.253765e-05  0.000010  0.001000  0.004070  1.526048e-01  0.999788     -0.016209  0.999787     -0.016209         1.057420
5  0.108511   0.000967 -1.085009e-01  3.302131e-05  0.000010  0.001000  0.004177  1.566249e-01  0.999890     -0.007930  0.999889     -0.007929         1.085272
6 -0.226809  -0.000922  2.268184e-01  1.842818e-03  0.000010  0.000921  0.009096  3.411096e-01  0.959791     -4.757528  0.959794     -4.757529         2.363277
7  0.025980   0.000922 -2.597036e-02 -5.337162e-07  0.000009  0.000921  0.001043  3.905582e-02  0.959780     -4.758910  0.959780     -4.758909         0.270853
8  0.310871   0.008215 -3.108602e-01 -7.215028e-03  0.000011  0.001000  0.011972  4.489041e-01  0.999791     -0.022464  0.999788     -0.022460         3.110447
9  1.989670   0.339964 -1.989650e+00 -3.359644e-01  0.000020  0.004000  0.016648  7.766613e-02  1.000000      0.000000  0.999995      0.000048         5.046262
--------------------------------------------------

RES_EXT_GRID:
      p_mw    q_mvar
0  1.98967  0.339964
--------------------------------------------------

RES_LOAD:
          p_mw        q_mvar
0     0.000000  0.000000e+00
1     0.000000  0.000000e+00
2     0.000000  0.000000e+00
3     0.000000  0.000000e+00
4     0.000000  0.000000e+00
5     0.000000  0.000000e+00
6     0.000000  0.000000e+00
7     0.000000  0.000000e+00
8     0.000000  0.000000e+00
9     0.000000  0.000000e+00
10    0.000000  0.000000e+00
11    0.000000  0.000000e+00
12    0.000000  0.000000e+00
13    0.000000  0.000000e+00
14    0.000000  0.000000e+00
15    0.000000  0.000000e+00
16    0.000000  0.000000e+00
17    0.000000  0.000000e+00
18    0.000000  0.000000e+00
19    0.000000  0.000000e+00
20    0.000000  0.000000e+00
21    0.000000  0.000000e+00
22    0.000000  0.000000e+00
23    0.126879  8.759057e-02
24    0.000000  0.000000e+00
25    0.000000  0.000000e+00
26    0.000000  0.000000e+00
27    0.000000  0.000000e+00
28    0.000000  0.000000e+00
29    0.000000  0.000000e+00
30    0.000000  0.000000e+00
31    0.000000  0.000000e+00
32    0.000000  0.000000e+00
33    0.000000  0.000000e+00
34    0.000000  0.000000e+00
35    0.000000  0.000000e+00
36    0.000000  0.000000e+00
37    0.000000  0.000000e+00
38    0.000000  0.000000e+00
39    0.000000  0.000000e+00
40    0.000000  0.000000e+00
41    0.000000  0.000000e+00
42    0.000000  0.000000e+00
43    0.000000  0.000000e+00
44    0.000000  0.000000e+00
45    0.000000  0.000000e+00
46    0.000000  0.000000e+00
47    0.125313  8.751769e-02
48    0.000000 -0.000000e+00
49    0.000000 -0.000000e+00
50    0.000000 -0.000000e+00
51    0.000000 -0.000000e+00
52    0.000000 -0.000000e+00
53    0.000000 -0.000000e+00
54    0.000000 -0.000000e+00
55    0.000000 -0.000000e+00
56    0.000000 -0.000000e+00
57    0.000000 -0.000000e+00
58    0.000000 -0.000000e+00
59    0.000000  0.000000e+00
60    0.000000 -0.000000e+00
61    0.000000 -0.000000e+00
62    0.000000 -0.000000e+00
63    0.000000 -0.000000e+00
64    0.000000 -0.000000e+00
65    0.000000 -0.000000e+00
66    0.000000 -0.000000e+00
67    0.000000 -0.000000e+00
68    0.000000 -0.000000e+00
69    0.000000 -0.000000e+00
70    0.000000 -0.000000e+00
71    0.002526 -6.956584e-07
72    0.000000  0.000000e+00
73    0.000000 -0.000000e+00
74    0.000000 -0.000000e+00
75    0.000000 -0.000000e+00
76    0.000000 -0.000000e+00
77    0.000000 -0.000000e+00
78    0.000000 -0.000000e+00
79    0.000000  0.000000e+00
80    0.000000  0.000000e+00
81    0.000000 -0.000000e+00
82    0.000000 -0.000000e+00
83    0.000000 -0.000000e+00
84    0.000000 -0.000000e+00
85    0.000000 -0.000000e+00
86    0.000000 -0.000000e+00
87    0.000000 -0.000000e+00
88    0.000000 -0.000000e+00
89    0.000000 -0.000000e+00
90    0.000000 -0.000000e+00
91    0.000000 -0.000000e+00
92    0.000000 -0.000000e+00
93    0.000000 -0.000000e+00
94    0.000000 -0.000000e+00
95    0.020774  4.038999e-04
96    0.000000  0.000000e+00
97    0.000000  0.000000e+00
98    0.000000  0.000000e+00
99    0.000000  0.000000e+00
100   0.000000  0.000000e+00
101   0.000000  0.000000e+00
102   0.000000  0.000000e+00
103   0.000000  0.000000e+00
104   0.000000  0.000000e+00
105   0.000000  0.000000e+00
106   0.000000  0.000000e+00
107   0.000000  0.000000e+00
108   0.000000  0.000000e+00
109   0.000000  0.000000e+00
110   0.000000  0.000000e+00
111   0.000000 -0.000000e+00
112   0.000000 -0.000000e+00
113   0.000000 -0.000000e+00
114   0.000000  0.000000e+00
115   0.000000  0.000000e+00
116   0.000000  0.000000e+00
117   0.000000  0.000000e+00
118   0.000000  0.000000e+00
119   0.006925  0.000000e+00
120   0.000000  0.000000e+00
121   0.000000  0.000000e+00
122   0.000000  0.000000e+00
123   0.000000  0.000000e+00
124   0.000000  0.000000e+00
125   0.000000  0.000000e+00
126   0.000000  0.000000e+00
127   0.000000  0.000000e+00
128   0.000000  0.000000e+00
129   0.000000  0.000000e+00
130   0.000000  0.000000e+00
131   0.000000  0.000000e+00
...